third_party/gridlab-d-networks/HL0004/HL0004_glmfile_ts.glm
//
//********************************
// A demonstration of cyme xml to Gridlab-D input
// created by: Vaibhav Donde
//

// Modifications
// - Changed solver to NR
// - Modified reference voltage to reflect the one in HL0004_glmfile_equip_volt. Swing node still kept old voltage.

clock{
	timestamp '2000-07-17 0:00:00';
	stoptime '2000-07-18 0:00:00';
}

//********************************
// modules
//********************************
module tape;
module powerflow{
	solver_method NR;
};

#include "uot_data.glm"

object node {
	name N_1700048530;
	voltage_A 12597.206;
	voltage_B 12597.206-120d;
	voltage_C 12597.206+120d;
	nominal_voltage 11997.339;
	phases ABC;
	bustype SWING;
}

//*********************************************
// Cap, Reg, PV Objects
//*********************************************
//#include "HL0004_glmfile_equip_manual.glm"
//#include "HL0004_glmfile_equip_volt.glm"
//#include "HL0004_glmfile_PVend.glm"
//#include "HL0004_glmfile_PVcenter.glm"
//#include "HL0004_glmfile_PVend_smartinv.glm"
//#include "HL0004_glmfile_PVdist.glm"
//#include "HL0004_glmfile_PVend_flicker.glm"



//*********************************************
// Conductor Objects
//*********************************************
// OHCond_1/0_AAC_I
object overhead_line_conductor {
	name OHCond_1/0_AAC_I;
	resistance 0.8820750323;
	geometric_mean_radius 0.0110971584;
	diameter 0.367999264;
}

// OHCond_2/0_CU_I
object overhead_line_conductor {
	name OHCond_2/0_CU_I;
	resistance 0.4453383704;
	geometric_mean_radius 0.012506804;
	diameter 0.413999172;
}

// OHCond_NONE
object overhead_line_conductor {
	name OHCond_NONE;
	resistance 0.0;
	geometric_mean_radius 0.0;
	diameter 0.0;
}

// OHCond_715_AAC_I
object overhead_line_conductor {
	name OHCond_715_AAC_I;
	resistance 0.1324968876;
	geometric_mean_radius 0.0311920128;
	diameter 0.972998054;
}

// OHCond_3/0_AAC_I
object overhead_line_conductor {
	name OHCond_3/0_AAC_I;
	resistance 0.5542847618;
	geometric_mean_radius 0.0140363992;
	diameter 0.463999072;
}

// OHCond_1/0_ACSR_I
object overhead_line_conductor {
	name OHCond_1/0_ACSR_I;
	resistance 0.8584762571;
	geometric_mean_radius 0.053506312;
	diameter 0.397999204;
}

// OHCond_397_AAC_C
object overhead_line_conductor {
	name OHCond_397_AAC_C;
	resistance 0.2354936969;
	geometric_mean_radius 0.0227941632;
	diameter 0.722998554;
}

// OHCond_4/0_ACSR_I
object overhead_line_conductor {
	name OHCond_4/0_ACSR_I;
	resistance 0.4287883292;
	geometric_mean_radius 0.0976549808;
	diameter 0.562998874;
}

// OHCond_4_ACSR_I
object overhead_line_conductor {
	name OHCond_4_ACSR_I;
	resistance 2.1715395317;
	geometric_mean_radius 0.0524265688;
	diameter 0.2499995;
}

// OHCond_6_CU_I
object overhead_line_conductor {
	name OHCond_6_CU_I;
	resistance 2.2113584416;
	geometric_mean_radius 0.00525866;
	diameter 0.161999676;
}

// OHCond_DEFAULT
object overhead_line_conductor {
	name OHCond_DEFAULT;
	resistance 0.27792611;
	geometric_mean_radius 0.01667552;
	diameter 0.52799107;
}

// OHCond_4_ACSR_C
object overhead_line_conductor {
	name OHCond_4_ACSR_C;
	resistance 2.1715395317;
	geometric_mean_radius 0.0524265688;
	diameter 0.2499995;
}

// OHCond_1/0_CU_I
object overhead_line_conductor {
	name OHCond_1/0_CU_I;
	resistance 0.5615250025;
	geometric_mean_radius 0.0111371416;
	diameter 0.367999264;
}

// OHCond_4/0_AAC_I
object overhead_line_conductor {
	name OHCond_4/0_AAC_I;
	resistance 0.4406874934;
	geometric_mean_radius 0.015765976;
	diameter 0.521998956;
}

// OHCond_4_CU_I
object overhead_line_conductor {
	name OHCond_4_CU_I;
	resistance 1.4181103321;
	geometric_mean_radius 0.006998208;
	diameter 0.231999536;
}

// OHCond_397_AAC_I
object overhead_line_conductor {
	name OHCond_397_AAC_I;
	resistance 0.2354936969;
	geometric_mean_radius 0.0227941632;
	diameter 0.722998554;
}

// OHCond_6_CU_C
object overhead_line_conductor {
	name OHCond_6_CU_C;
	resistance 2.2113584416;
	geometric_mean_radius 0.00525866;
	diameter 0.161999676;
}

// OHCond_2_ACSR_I
object overhead_line_conductor {
	name OHCond_2_ACSR_I;
	resistance 1.3505631832;
	geometric_mean_radius 0.060464504;
	diameter 0.32499935;
}

// UGCable_DEFAULT
object underground_line_conductor {
	name UGCable_DEFAULT;
	outer_diameter 0.6692917;
	conductor_gmr 0.01667552;
	conductor_diameter 0.52799107;
	conductor_resistance 0.27792611;
	neutral_gmr 0.01667552;
	neutral_resistance 0.27792611;
	neutral_diameter 0.52799107;
	neutral_strands 2;
}

// UGCable_2_AL_XLP-CONC-PVC_22KV_3P
object underground_line_conductor {
	name UGCable_2_AL_XLP-CONC-PVC_22KV_3P;
	outer_diameter 0.6692917;
	conductor_gmr 0.01667552;
	conductor_diameter 0.52799107;
	conductor_resistance 0.27792611;
	neutral_gmr 0.01667552;
	neutral_resistance 0.27792611;
	neutral_diameter 0.52799107;
	neutral_strands 2;
}

// UGCable_1/0_AL_EPR-CONC-ENCAP-PE_1P
object underground_line_conductor {
	name UGCable_1/0_AL_EPR-CONC-ENCAP-PE_1P;
	outer_diameter 0.669290518897;
	conductor_gmr 0.01667552;
	conductor_diameter 0.52799107;
	conductor_resistance 0.27792611;
	neutral_gmr 0.01667552;
	neutral_resistance 0.27792611;
	neutral_diameter 0.52799107;
	neutral_strands 2;
}

// UGCable_1100_AL_EPR-CONC-ENCAP-PE_3P
object underground_line_conductor {
	name UGCable_1100_AL_EPR-CONC-ENCAP-PE_3P;
	outer_diameter 0.6692917;
	conductor_gmr 0.01667552;
	conductor_diameter 0.52799107;
	conductor_resistance 0.27792611;
	neutral_gmr 0.01667552;
	neutral_resistance 0.27792611;
	neutral_diameter 0.52799107;
	neutral_strands 2;
}

// UGCable_1/0_AL_XLP-CONC-PVC_22KV_3P
object underground_line_conductor {
	name UGCable_1/0_AL_XLP-CONC-PVC_22KV_3P;
	outer_diameter 0.6692917;
	conductor_gmr 0.01667552;
	conductor_diameter 0.52799107;
	conductor_resistance 0.27792611;
	neutral_gmr 0.01667552;
	neutral_resistance 0.27792611;
	neutral_diameter 0.52799107;
	neutral_strands 2;
}

// UGCable_2_AL_PEC_22KV_1P
object underground_line_conductor {
	name UGCable_2_AL_PEC_22KV_1P;
	outer_diameter 0.669290518897;
	conductor_gmr 0.01667552;
	conductor_diameter 0.52799107;
	conductor_resistance 0.27792611;
	neutral_gmr 0.01667552;
	neutral_resistance 0.27792611;
	neutral_diameter 0.52799107;
	neutral_strands 2;
}

// UGCable_1/0_AL_XLP-CON-ENCP-PE_22KV_2P
object underground_line_conductor {
	name UGCable_1/0_AL_XLP-CON-ENCP-PE_22KV_2P;
	outer_diameter 0.669290518897;
	conductor_gmr 0.01667552;
	conductor_diameter 0.52799107;
	conductor_resistance 0.27792611;
	neutral_gmr 0.01667552;
	neutral_resistance 0.27792611;
	neutral_diameter 0.52799107;
	neutral_strands 2;
}

// UGCable_2_AL_PEC_22KV_3P
object underground_line_conductor {
	name UGCable_2_AL_PEC_22KV_3P;
	outer_diameter 0.669290518897;
	conductor_gmr 0.01667552;
	conductor_diameter 0.52799107;
	conductor_resistance 0.27792611;
	neutral_gmr 0.01667552;
	neutral_resistance 0.27792611;
	neutral_diameter 0.52799107;
	neutral_strands 2;
}

// UGCable_2_AL_XLP-CONC-CIC_22KV_2P
object underground_line_conductor {
	name UGCable_2_AL_XLP-CONC-CIC_22KV_2P;
	outer_diameter 0.669290518897;
	conductor_gmr 0.01667552;
	conductor_diameter 0.52799107;
	conductor_resistance 0.27792611;
	neutral_gmr 0.01667552;
	neutral_resistance 0.27792611;
	neutral_diameter 0.52799107;
	neutral_strands 2;
}

// UGCable_1/0_AL_EPR-CONC-ENCAP-PE_3P
object underground_line_conductor {
	name UGCable_1/0_AL_EPR-CONC-ENCAP-PE_3P;
	outer_diameter 0.669290518897;
	conductor_gmr 0.01667552;
	conductor_diameter 0.52799107;
	conductor_resistance 0.27792611;
	neutral_gmr 0.01667552;
	neutral_resistance 0.27792611;
	neutral_diameter 0.52799107;
	neutral_strands 2;
}

// UGCable_1/0_AL_XLP-PVC_22KV_3P
object underground_line_conductor {
	name UGCable_1/0_AL_XLP-PVC_22KV_3P;
	outer_diameter 0.6692917;
	conductor_gmr 0.01667552;
	conductor_diameter 0.52799107;
	conductor_resistance 0.27792611;
	neutral_gmr 0.01667552;
	neutral_resistance 0.27792611;
	neutral_diameter 0.52799107;
	neutral_strands 2;
}

// UGCable_1000_AL_XLP-CONC-PVC_22KV_3P
object underground_line_conductor {
	name UGCable_1000_AL_XLP-CONC-PVC_22KV_3P;
	outer_diameter 0.6692917;
	conductor_gmr 0.01667552;
	conductor_diameter 0.52799107;
	conductor_resistance 0.27792611;
	neutral_gmr 0.01667552;
	neutral_resistance 0.27792611;
	neutral_diameter 0.52799107;
	neutral_strands 2;
}

// UGCable_2_AL_XLP-PVC_22KV_3P
object underground_line_conductor {
	name UGCable_2_AL_XLP-PVC_22KV_3P;
	outer_diameter 0.6692917;
	conductor_gmr 0.01667552;
	conductor_diameter 0.52799107;
	conductor_resistance 0.27792611;
	neutral_gmr 0.01667552;
	neutral_resistance 0.27792611;
	neutral_diameter 0.52799107;
	neutral_strands 2;
}

// UGCable_1/0_AL_XLC_15KV_3P
object underground_line_conductor {
	name UGCable_1/0_AL_XLC_15KV_3P;
	outer_diameter 0.6692917;
	conductor_gmr 0.01667552;
	conductor_diameter 0.52799107;
	conductor_resistance 0.27792611;
	neutral_gmr 0.01667552;
	neutral_resistance 0.27792611;
	neutral_diameter 0.52799107;
	neutral_strands 2;
}

// UGCable_1000_AL_XLP-PVC_22KV_3P&N
object underground_line_conductor {
	name UGCable_1000_AL_XLP-PVC_22KV_3P&N;
	outer_diameter 0.6692917;
	conductor_gmr 0.01667552;
	conductor_diameter 0.52799107;
	conductor_resistance 0.27792611;
	neutral_gmr 0.01667552;
	neutral_resistance 0.27792611;
	neutral_diameter 0.52799107;
	neutral_strands 2;
}

// UGCable_2_AL_XLP-CONC-ENCAP-PE_22KV_3P
object underground_line_conductor {
	name UGCable_2_AL_XLP-CONC-ENCAP-PE_22KV_3P;
	outer_diameter 0.6692917;
	conductor_gmr 0.01667552;
	conductor_diameter 0.52799107;
	conductor_resistance 0.27792611;
	neutral_gmr 0.01667552;
	neutral_resistance 0.27792611;
	neutral_diameter 0.52799107;
	neutral_strands 2;
}

// UGCable_1/0_AL_XLP-CON-ENCP-PE_22KV_3P
object underground_line_conductor {
	name UGCable_1/0_AL_XLP-CON-ENCP-PE_22KV_3P;
	outer_diameter 0.6692917;
	conductor_gmr 0.01667552;
	conductor_diameter 0.52799107;
	conductor_resistance 0.27792611;
	neutral_gmr 0.01667552;
	neutral_resistance 0.27792611;
	neutral_diameter 0.52799107;
	neutral_strands 2;
}

// UGCable_2_AL_PEC_22KV_2P
object underground_line_conductor {
	name UGCable_2_AL_PEC_22KV_2P;
	outer_diameter 0.669290518897;
	conductor_gmr 0.01667552;
	conductor_diameter 0.52799107;
	conductor_resistance 0.27792611;
	neutral_gmr 0.01667552;
	neutral_resistance 0.27792611;
	neutral_diameter 0.52799107;
	neutral_strands 2;
}

// UGCable_1/0_AL_EPR-CONC-ENCAP-PE_2P
object underground_line_conductor {
	name UGCable_1/0_AL_EPR-CONC-ENCAP-PE_2P;
	outer_diameter 0.669290518897;
	conductor_gmr 0.01667552;
	conductor_diameter 0.52799107;
	conductor_resistance 0.27792611;
	neutral_gmr 0.01667552;
	neutral_resistance 0.27792611;
	neutral_diameter 0.52799107;
	neutral_strands 2;
}

// UGCable_2_AL_XLP-CONC-CIC_22KV_3P
object underground_line_conductor {
	name UGCable_2_AL_XLP-CONC-CIC_22KV_3P;
	outer_diameter 0.6692917;
	conductor_gmr 0.01667552;
	conductor_diameter 0.52799107;
	conductor_resistance 0.27792611;
	neutral_gmr 0.01667552;
	neutral_resistance 0.27792611;
	neutral_diameter 0.52799107;
	neutral_strands 2;
}

// UGCable_600_AL_EPR-CONC-ENCAP-PE_3P
object underground_line_conductor {
	name UGCable_600_AL_EPR-CONC-ENCAP-PE_3P;
	outer_diameter 0.6692917;
	conductor_gmr 0.01667552;
	conductor_diameter 0.52799107;
	conductor_resistance 0.27792611;
	neutral_gmr 0.01667552;
	neutral_resistance 0.27792611;
	neutral_diameter 0.52799107;
	neutral_strands 2;
}

// UGCable_4/0_AL_XLP-PVC_22KV_3P
object underground_line_conductor {
	name UGCable_4/0_AL_XLP-PVC_22KV_3P;
	outer_diameter 0.6692917;
	conductor_gmr 0.01667552;
	conductor_diameter 0.52799107;
	conductor_resistance 0.27792611;
	neutral_gmr 0.01667552;
	neutral_resistance 0.27792611;
	neutral_diameter 0.52799107;
	neutral_strands 2;
}

//*********************************************
// Line spacing objects
//*********************************************
// OHSpacing_HORIZONTAL_2P_88
object line_spacing {
	name OHSpacing_HORIZONTAL_2P_88;
	distance_AB 7.3332408792;
	distance_BC 7.3332408792;
	distance_AC 7.3332408792;
	distance_AN 9.9998784;
	distance_BN 9.9998784;
	distance_CN 9.9998784;
}

// OHSpacing_TRIANGULAR_3P_52
object line_spacing {
	name OHSpacing_TRIANGULAR_3P_52;
	distance_AB 4.3332773592;
	distance_BC 4.3332773592;
	distance_AC 4.3332773592;
	distance_AN 6.6665888808;
	distance_BN 6.6665888808;
	distance_CN 6.6665888808;
}

// UGSpacing_2_AL_XLP-CONC-CIC_22KV_3P
object line_spacing {
	name UGSpacing_2_AL_XLP-CONC-CIC_22KV_3P;
	distance_AB 0.147636;
	distance_BC 0.147636;
	distance_AC 0.295272;
}

// UGSpacing_1100_AL_EPR-CONC-ENCAP-PE_3P
object line_spacing {
	name UGSpacing_1100_AL_EPR-CONC-ENCAP-PE_3P;
	distance_AB 0.147636;
	distance_BC 0.147636;
	distance_AC 0.295272;
}

// OHSpacing_TRIANGULAR_1P_36
object line_spacing {
	name OHSpacing_TRIANGULAR_1P_36;
	distance_AB 2.99996352;
	distance_BC 2.99996352;
	distance_AC 2.99996352;
	distance_AN 4.0799503872;
	distance_BN 4.0799503872;
	distance_CN 4.0799503872;
}

// UGSpacing_2_AL_XLP-CONC-ENCAP-PE_22KV_3P
object line_spacing {
	name UGSpacing_2_AL_XLP-CONC-ENCAP-PE_22KV_3P;
	distance_AB 0.147636;
	distance_BC 0.147636;
	distance_AC 0.295272;
}

// UGSpacing_1000_AL_XLP-CONC-PVC_22KV_3P
object line_spacing {
	name UGSpacing_1000_AL_XLP-CONC-PVC_22KV_3P;
	distance_AB 0.147636;
	distance_BC 0.147636;
	distance_AC 0.295272;
}

// OHSpacing_TRIANGULAR_2P_36
object line_spacing {
	name OHSpacing_TRIANGULAR_2P_36;
	distance_AB 2.99996352;
	distance_BC 2.99996352;
	distance_AC 2.99996352;
	distance_AN 4.0799503872;
	distance_BN 4.0799503872;
	distance_CN 4.0799503872;
}

// OHSpacing_TRIANGULAR_2P_35
object line_spacing {
	name OHSpacing_TRIANGULAR_2P_35;
	distance_AB 2.9169658416;
	distance_BC 2.9169658416;
	distance_AC 2.9169658416;
	distance_AN 2.9169658416;
	distance_BN 2.9169658416;
	distance_CN 2.9169658416;
}

// OHSpacing_TRIANGULAR_2P_52
object line_spacing {
	name OHSpacing_TRIANGULAR_2P_52;
	distance_AB 4.33328064;
	distance_BC 4.33328064;
	distance_AC 4.33328064;
	distance_AN 4.3332773592;
	distance_BN 4.3332773592;
	distance_CN 4.3332773592;
}

// OHSpacing_HORIZONTAL_1P_56
object line_spacing {
	name OHSpacing_HORIZONTAL_1P_56;
	distance_AB 4.66660992;
	distance_BC 4.66660992;
	distance_AC 4.66660992;
	distance_AN 6.99991488;
	distance_BN 6.99991488;
	distance_CN 6.99991488;
}

// OHSpacing_HORIZONTAL_1P_52
object line_spacing {
	name OHSpacing_HORIZONTAL_1P_52;
	distance_AB 4.3332773592;
	distance_BC 4.3332773592;
	distance_AC 4.3332773592;
	distance_AN 6.6665888808;
	distance_BN 6.6665888808;
	distance_CN 6.6665888808;
}

// UGSpacing_1/0_AL_EPR-CONC-ENCAP-PE_3P
object line_spacing {
	name UGSpacing_1/0_AL_EPR-CONC-ENCAP-PE_3P;
	distance_AB 0.147636;
	distance_BC 0.147636;
	distance_AC 0.295272;
}

// UGSpacing_2_AL_PEC_22KV_3P
object line_spacing {
	name UGSpacing_2_AL_PEC_22KV_3P;
	distance_AB 0.147636;
	distance_BC 0.147636;
	distance_AC 0.295272;
}

// OHSpacing_HORIZONTAL_2P_56
object line_spacing {
	name OHSpacing_HORIZONTAL_2P_56;
	distance_AB 4.66660992;
	distance_BC 4.66660992;
	distance_AC 4.66660992;
	distance_AN 6.99991488;
	distance_BN 6.99991488;
	distance_CN 6.99991488;
}

// OHSpacing_HORIZONTAL_2P_52
object line_spacing {
	name OHSpacing_HORIZONTAL_2P_52;
	distance_AB 4.3332773592;
	distance_BC 4.3332773592;
	distance_AC 4.3332773592;
	distance_AN 6.6665888808;
	distance_BN 6.6665888808;
	distance_CN 6.6665888808;
}

// UGSpacing_2_AL_PEC_22KV_2P
object line_spacing {
	name UGSpacing_2_AL_PEC_22KV_2P;
	distance_AB 0.147636;
	distance_BC 0.0;
	distance_AC 0.0;
}

// UGSpacing_1/0_AL_EPR-CONC-ENCAP-PE_1P
object line_spacing {
	name UGSpacing_1/0_AL_EPR-CONC-ENCAP-PE_1P;
	distance_AB 0.0;
	distance_BC 0.0;
	distance_AC 0.0;
}

// OHSpacing_HORIZONTAL_3P_88
object line_spacing {
	name OHSpacing_HORIZONTAL_3P_88;
	distance_AB 7.3332408792;
	distance_BC 7.3332408792;
	distance_AC 7.3332408792;
	distance_AN 9.9998784;
	distance_BN 9.9998784;
	distance_CN 9.9998784;
}

// OHSpacing_HORIZONTAL_3P_45
object line_spacing {
	name OHSpacing_HORIZONTAL_3P_45;
	distance_AB 3.7499544;
	distance_BC 3.7499544;
	distance_AC 3.7499544;
	distance_AN 3.7499544;
	distance_BN 3.7499544;
	distance_CN 3.7499544;
}

// OHSpacing_HORIZONTAL_3P_60
object line_spacing {
	name OHSpacing_HORIZONTAL_3P_60;
	distance_AB 4.9999392;
	distance_BC 4.9999392;
	distance_AC 4.9999392;
	distance_AN 6.799917312;
	distance_BN 6.799917312;
	distance_CN 6.799917312;
}

// UGSpacing_DEFAULT
object line_spacing {
	name UGSpacing_DEFAULT;
	distance_AB 0.147636;
	distance_BC 0.147636;
	distance_AC 0.295272;
}

// OHSpacing_TRIANGULAR_3P_35
object line_spacing {
	name OHSpacing_TRIANGULAR_3P_35;
	distance_AB 2.9166312;
	distance_BC 2.9166312;
	distance_AC 2.9166312;
	distance_AN 5.49993312;
	distance_BN 5.49993312;
	distance_CN 5.49993312;
}

// UGSpacing_4/0_AL_XLP-PVC_22KV_3P
object line_spacing {
	name UGSpacing_4/0_AL_XLP-PVC_22KV_3P;
	distance_AB 0.147636;
	distance_BC 0.147636;
	distance_AC 0.295272;
}

// OHSpacing_HORIZONTAL_3P_49
object line_spacing {
	name OHSpacing_HORIZONTAL_3P_49;
	distance_AB 4.08328368;
	distance_BC 4.08328368;
	distance_AC 4.08328368;
	distance_AN 5.5532658048;
	distance_BN 5.5532658048;
	distance_CN 5.5532658048;
}

// UGSpacing_1/0_AL_XLP-CON-ENCP-PE_22KV_2P
object line_spacing {
	name UGSpacing_1/0_AL_XLP-CON-ENCP-PE_22KV_2P;
	distance_AB 0.147636;
	distance_BC 0.0;
	distance_AC 0.0;
}

// OHSpacing_TRIANGULAR_1P_45
object line_spacing {
	name OHSpacing_TRIANGULAR_1P_45;
	distance_AB 3.7499544;
	distance_BC 3.7499544;
	distance_AC 3.7499544;
	distance_AN 3.7499544;
	distance_BN 3.7499544;
	distance_CN 3.7499544;
}

// UGSpacing_2_AL_PEC_22KV_1P
object line_spacing {
	name UGSpacing_2_AL_PEC_22KV_1P;
	distance_AB 0.0;
	distance_BC 0.0;
	distance_AC 0.0;
}

// UGSpacing_2_AL_XLP-CONC-CIC_22KV_2P
object line_spacing {
	name UGSpacing_2_AL_XLP-CONC-CIC_22KV_2P;
	distance_AB 0.147636;
	distance_BC 0.0;
	distance_AC 0.0;
}

// OHSpacing_HORIZONTAL_3P_35
object line_spacing {
	name OHSpacing_HORIZONTAL_3P_35;
	distance_AB 2.9169658416;
	distance_BC 2.9169658416;
	distance_AC 2.9169658416;
	distance_AN 2.9169658416;
	distance_BN 2.9169658416;
	distance_CN 2.9169658416;
}

// OHSpacing_HORIZONTAL_3P_52
object line_spacing {
	name OHSpacing_HORIZONTAL_3P_52;
	distance_AB 4.3332773592;
	distance_BC 4.3332773592;
	distance_AC 4.3332773592;
	distance_AN 6.6665888808;
	distance_BN 6.6665888808;
	distance_CN 6.6665888808;
}

// UGSpacing_1/0_AL_XLP-CONC-PVC_22KV_3P
object line_spacing {
	name UGSpacing_1/0_AL_XLP-CONC-PVC_22KV_3P;
	distance_AB 0.147636;
	distance_BC 0.147636;
	distance_AC 0.295272;
}

// OHSpacing_HORIZONTAL_3P_36
object line_spacing {
	name OHSpacing_HORIZONTAL_3P_36;
	distance_AB 2.99996352;
	distance_BC 2.99996352;
	distance_AC 2.99996352;
	distance_AN 4.0799503872;
	distance_BN 4.0799503872;
	distance_CN 4.0799503872;
}

// OHSpacing_HORIZONTAL_3P_56
object line_spacing {
	name OHSpacing_HORIZONTAL_3P_56;
	distance_AB 4.66660992;
	distance_BC 4.66660992;
	distance_AC 4.66660992;
	distance_AN 6.99991488;
	distance_BN 6.99991488;
	distance_CN 6.99991488;
}

// OHSpacing_TRIANGULAR_2P_45
object line_spacing {
	name OHSpacing_TRIANGULAR_2P_45;
	distance_AB 3.7499544;
	distance_BC 3.7499544;
	distance_AC 3.7499544;
	distance_AN 3.7499544;
	distance_BN 3.7499544;
	distance_CN 3.7499544;
}

// UGSpacing_2_AL_XLP-CONC-PVC_22KV_3P
object line_spacing {
	name UGSpacing_2_AL_XLP-CONC-PVC_22KV_3P;
	distance_AB 0.147636;
	distance_BC 0.147636;
	distance_AC 0.295272;
}

// OHSpacing_HORIZONTAL_1P_45
object line_spacing {
	name OHSpacing_HORIZONTAL_1P_45;
	distance_AB 3.7499544;
	distance_BC 3.7499544;
	distance_AC 3.7499544;
	distance_AN 5.099937984;
	distance_BN 5.099937984;
	distance_CN 5.099937984;
}

// UGSpacing_1/0_AL_EPR-CONC-ENCAP-PE_2P
object line_spacing {
	name UGSpacing_1/0_AL_EPR-CONC-ENCAP-PE_2P;
	distance_AB 0.147636;
	distance_BC 0.0;
	distance_AC 0.0;
}

// UGSpacing_1/0_AL_XLP-PVC_22KV_3P
object line_spacing {
	name UGSpacing_1/0_AL_XLP-PVC_22KV_3P;
	distance_AB 0.147636;
	distance_BC 0.147636;
	distance_AC 0.295272;
}

// OHSpacing_HORIZONTAL_2P_45
object line_spacing {
	name OHSpacing_HORIZONTAL_2P_45;
	distance_AB 3.7499544;
	distance_BC 3.7499544;
	distance_AC 3.7499544;
	distance_AN 4.9999392;
	distance_BN 4.9999392;
	distance_CN 4.9999392;
}

// UGSpacing_1000_AL_XLP-PVC_22KV_3P&N
object line_spacing {
	name UGSpacing_1000_AL_XLP-PVC_22KV_3P&N;
	distance_AB 0.147636;
	distance_BC 0.147636;
	distance_AC 0.295272;
}

// UGSpacing_600_AL_EPR-CONC-ENCAP-PE_3P
object line_spacing {
	name UGSpacing_600_AL_EPR-CONC-ENCAP-PE_3P;
	distance_AB 0.147636;
	distance_BC 0.147636;
	distance_AC 0.295272;
}

// UGSpacing_1/0_AL_XLP-CON-ENCP-PE_22KV_3P
object line_spacing {
	name UGSpacing_1/0_AL_XLP-CON-ENCP-PE_22KV_3P;
	distance_AB 0.147636;
	distance_BC 0.147636;
	distance_AC 0.295272;
}

// OHSpacing_HORIZONTAL_1P_88
object line_spacing {
	name OHSpacing_HORIZONTAL_1P_88;
	distance_AB 7.3332408792;
	distance_BC 7.3332408792;
	distance_AC 7.3332408792;
	distance_AN 7.3332408792;
	distance_BN 7.3332408792;
	distance_CN 7.3332408792;
}

// UGSpacing_2_AL_XLP-PVC_22KV_3P
object line_spacing {
	name UGSpacing_2_AL_XLP-PVC_22KV_3P;
	distance_AB 0.147636;
	distance_BC 0.147636;
	distance_AC 0.295272;
}

// UGSpacing_1/0_AL_XLC_15KV_3P
object line_spacing {
	name UGSpacing_1/0_AL_XLC_15KV_3P;
	distance_AB 0.147636;
	distance_BC 0.147636;
	distance_AC 0.295272;
}

//*********************************************
// Line Config objects
//*********************************************
// L_1700092888_LineConfig
object line_configuration {
	name L_1700092888_LineConfig;
	conductor_A OHCond_4_ACSR_I;
	conductor_B OHCond_4_ACSR_I;
	conductor_C OHCond_NONE;
	conductor_N OHCond_NONE;
	spacing OHSpacing_HORIZONTAL_2P_88;
}

// L_1700121453_LineConfig
object line_configuration {
	name L_1700121453_LineConfig;
	conductor_A OHCond_4_ACSR_I;
	conductor_B OHCond_NONE;
	conductor_C OHCond_NONE;
	conductor_N OHCond_4_ACSR_I;
	spacing OHSpacing_HORIZONTAL_1P_52;
}

// L_1700018824_LineConfig
object line_configuration {
	name L_1700018824_LineConfig;
	conductor_A OHCond_4_ACSR_I;
	conductor_B OHCond_4_ACSR_I;
	conductor_C OHCond_4_ACSR_I;
	conductor_N OHCond_NONE;
	spacing OHSpacing_HORIZONTAL_3P_52;
}

// L_1700092265_LineConfig
object line_configuration {
	name L_1700092265_LineConfig;
	conductor_A OHCond_4_ACSR_I;
	conductor_B OHCond_4_ACSR_I;
	conductor_C OHCond_4_ACSR_I;
	conductor_N OHCond_NONE;
	spacing OHSpacing_HORIZONTAL_3P_60;
}

// L_1700093610_LineConfig
object line_configuration {
	name L_1700093610_LineConfig;
	conductor_A OHCond_4_ACSR_I;
	conductor_B OHCond_NONE;
	conductor_C OHCond_NONE;
	conductor_N OHCond_NONE;
	spacing OHSpacing_HORIZONTAL_1P_52;
}

// L_1700128199_LineConfig
object line_configuration {
	name L_1700128199_LineConfig;
	conductor_A OHCond_397_AAC_I;
	conductor_B OHCond_397_AAC_I;
	conductor_C OHCond_397_AAC_I;
	conductor_N OHCond_NONE;
	spacing OHSpacing_TRIANGULAR_3P_35;
}

// L_1700092958_LineConfig
object line_configuration {
	name L_1700092958_LineConfig;
	conductor_A OHCond_4_ACSR_I;
	conductor_B OHCond_4_ACSR_I;
	conductor_C OHCond_NONE;
	conductor_N OHCond_NONE;
	spacing OHSpacing_HORIZONTAL_2P_52;
}

// L_1700009238_LineConfig
object line_configuration {
	name L_1700009238_LineConfig;
	conductor_A OHCond_6_CU_I;
	conductor_B OHCond_6_CU_I;
	conductor_C OHCond_6_CU_I;
	conductor_N OHCond_NONE;
	spacing OHSpacing_HORIZONTAL_3P_52;
}

// L_1700093757_LineConfig
object line_configuration {
	name L_1700093757_LineConfig;
	conductor_A OHCond_6_CU_I;
	conductor_B OHCond_6_CU_I;
	conductor_C OHCond_6_CU_I;
	conductor_N OHCond_NONE;
	spacing OHSpacing_HORIZONTAL_3P_52;
}

// L_1700062067_LineConfig
object line_configuration {
	name L_1700062067_LineConfig;
	conductor_A OHCond_6_CU_I;
	conductor_B OHCond_6_CU_I;
	conductor_C OHCond_6_CU_I;
	conductor_N OHCond_NONE;
	spacing OHSpacing_HORIZONTAL_3P_52;
}

// L_1700127822_LineConfig
object line_configuration {
	name L_1700127822_LineConfig;
	conductor_A OHCond_397_AAC_I;
	conductor_B OHCond_397_AAC_I;
	conductor_C OHCond_397_AAC_I;
	conductor_N OHCond_NONE;
	spacing OHSpacing_TRIANGULAR_3P_35;
}

// L_1700062921_LineConfig
object line_configuration {
	name L_1700062921_LineConfig;
	conductor_A OHCond_4_ACSR_I;
	conductor_B OHCond_4_ACSR_I;
	conductor_C OHCond_NONE;
	conductor_N OHCond_NONE;
	spacing OHSpacing_HORIZONTAL_2P_52;
}

// L_1700093687_LineConfig
object line_configuration {
	name L_1700093687_LineConfig;
	conductor_A OHCond_4_CU_I;
	conductor_B OHCond_4_CU_I;
	conductor_C OHCond_4_CU_I;
	conductor_N OHCond_NONE;
	spacing OHSpacing_HORIZONTAL_3P_52;
}

// L_1700018290_LineConfig
object line_configuration {
	name L_1700018290_LineConfig;
	conductor_A OHCond_4_ACSR_I;
	conductor_B OHCond_NONE;
	conductor_C OHCond_NONE;
	conductor_N OHCond_4_ACSR_I;
	spacing OHSpacing_HORIZONTAL_1P_52;
}

// L_1700094069_LineConfig
object line_configuration {
	name L_1700094069_LineConfig;
	conductor_A OHCond_4_ACSR_I;
	conductor_B OHCond_4_ACSR_I;
	conductor_C OHCond_NONE;
	conductor_N OHCond_4_ACSR_I;
	spacing OHSpacing_HORIZONTAL_2P_52;
}

// L_1700120466_LineConfig
object line_configuration {
	name L_1700120466_LineConfig;
	conductor_A OHCond_4_ACSR_I;
	conductor_B OHCond_4_ACSR_I;
	conductor_C OHCond_4_ACSR_I;
	conductor_N OHCond_NONE;
	spacing OHSpacing_HORIZONTAL_3P_52;
}

// L_1700093777_LineConfig
object line_configuration {
	name L_1700093777_LineConfig;
	conductor_A OHCond_6_CU_I;
	conductor_B OHCond_6_CU_I;
	conductor_C OHCond_NONE;
	conductor_N OHCond_6_CU_I;
	spacing OHSpacing_HORIZONTAL_2P_52;
}

// L_1700019032_LineConfig
object line_configuration {
	name L_1700019032_LineConfig;
	conductor_A OHCond_4_CU_I;
	conductor_B OHCond_4_CU_I;
	conductor_C OHCond_4_CU_I;
	conductor_N OHCond_NONE;
	spacing OHSpacing_HORIZONTAL_3P_52;
}

// L_1700093605_LineConfig
object line_configuration {
	name L_1700093605_LineConfig;
	conductor_A OHCond_4_ACSR_I;
	conductor_B OHCond_4_ACSR_I;
	conductor_C OHCond_NONE;
	conductor_N OHCond_NONE;
	spacing OHSpacing_HORIZONTAL_2P_52;
}

// L_1700093191_LineConfig
object line_configuration {
	name L_1700093191_LineConfig;
	conductor_A OHCond_4_ACSR_I;
	conductor_B OHCond_NONE;
	conductor_C OHCond_NONE;
	conductor_N OHCond_NONE;
	spacing OHSpacing_HORIZONTAL_1P_52;
}

// L_1700094100_LineConfig
object line_configuration {
	name L_1700094100_LineConfig;
	conductor_A OHCond_6_CU_I;
	conductor_B OHCond_NONE;
	conductor_C OHCond_NONE;
	conductor_N OHCond_6_CU_I;
	spacing OHSpacing_HORIZONTAL_1P_52;
}

// L_1700009858_LineConfig
object line_configuration {
	name L_1700009858_LineConfig;
	conductor_A OHCond_6_CU_I;
	conductor_B OHCond_6_CU_I;
	conductor_C OHCond_NONE;
	conductor_N OHCond_NONE;
	spacing OHSpacing_HORIZONTAL_2P_88;
}

// L_1700018708_LineConfig
object line_configuration {
	name L_1700018708_LineConfig;
	conductor_A OHCond_6_CU_I;
	conductor_B OHCond_6_CU_I;
	conductor_C OHCond_6_CU_I;
	conductor_N OHCond_NONE;
	spacing OHSpacing_HORIZONTAL_3P_52;
}

// L_1700094109_LineConfig
object line_configuration {
	name L_1700094109_LineConfig;
	conductor_A OHCond_4_CU_I;
	conductor_B OHCond_4_CU_I;
	conductor_C OHCond_4_CU_I;
	conductor_N OHCond_NONE;
	spacing OHSpacing_HORIZONTAL_3P_56;
}

// L_1700017898_LineConfig
object line_configuration {
	name L_1700017898_LineConfig;
	conductor_A OHCond_2_ACSR_I;
	conductor_B OHCond_NONE;
	conductor_C OHCond_NONE;
	conductor_N OHCond_4_ACSR_I;
	spacing OHSpacing_HORIZONTAL_1P_52;
}

// L_1700094672_LineConfig
object line_configuration {
	name L_1700094672_LineConfig;
	conductor_A OHCond_4_ACSR_I;
	conductor_B OHCond_4_ACSR_I;
	conductor_C OHCond_4_ACSR_I;
	conductor_N OHCond_NONE;
	spacing OHSpacing_HORIZONTAL_3P_52;
}

// L_1700076907_LineConfig
object line_configuration {
	name L_1700076907_LineConfig;
	conductor_A OHCond_4_ACSR_I;
	conductor_B OHCond_NONE;
	conductor_C OHCond_NONE;
	conductor_N OHCond_NONE;
	spacing OHSpacing_HORIZONTAL_1P_88;
}

// L_1700093679_LineConfig
object line_configuration {
	name L_1700093679_LineConfig;
	conductor_A OHCond_4_ACSR_I;
	conductor_B OHCond_4_ACSR_I;
	conductor_C OHCond_4_ACSR_I;
	conductor_N OHCond_NONE;
	spacing OHSpacing_HORIZONTAL_3P_52;
}

// L_1700093168_LineConfig
object line_configuration {
	name L_1700093168_LineConfig;
	conductor_A OHCond_4_ACSR_I;
	conductor_B OHCond_4_ACSR_I;
	conductor_C OHCond_4_ACSR_I;
	conductor_N OHCond_NONE;
	spacing OHSpacing_HORIZONTAL_3P_52;
}

// L_1700072930_LineConfig
object line_configuration {
	name L_1700072930_LineConfig;
	conductor_A OHCond_4_ACSR_I;
	conductor_B OHCond_4_ACSR_I;
	conductor_C OHCond_NONE;
	conductor_N OHCond_NONE;
	spacing OHSpacing_HORIZONTAL_2P_52;
}

// L_1700092883_LineConfig
object line_configuration {
	name L_1700092883_LineConfig;
	conductor_A OHCond_4_ACSR_I;
	conductor_B OHCond_4_ACSR_I;
	conductor_C OHCond_NONE;
	conductor_N OHCond_NONE;
	spacing OHSpacing_HORIZONTAL_2P_88;
}

// L_1700079229_LineConfig
object line_configuration {
	name L_1700079229_LineConfig;
	conductor_A OHCond_6_CU_I;
	conductor_B OHCond_6_CU_I;
	conductor_C OHCond_NONE;
	conductor_N OHCond_NONE;
	spacing OHSpacing_HORIZONTAL_2P_88;
}

// L_1700057017_LineConfig
object line_configuration {
	name L_1700057017_LineConfig;
	conductor_A OHCond_4_ACSR_I;
	conductor_B OHCond_4_ACSR_I;
	conductor_C OHCond_4_ACSR_I;
	conductor_N OHCond_NONE;
	spacing OHSpacing_HORIZONTAL_3P_52;
}

// L_1700093131_LineConfig
object line_configuration {
	name L_1700093131_LineConfig;
	conductor_A OHCond_6_CU_I;
	conductor_B OHCond_6_CU_I;
	conductor_C OHCond_6_CU_I;
	conductor_N OHCond_NONE;
	spacing OHSpacing_HORIZONTAL_3P_52;
}

// L_1700092893_LineConfig
object line_configuration {
	name L_1700092893_LineConfig;
	conductor_A OHCond_6_CU_I;
	conductor_B OHCond_6_CU_I;
	conductor_C OHCond_NONE;
	conductor_N OHCond_NONE;
	spacing OHSpacing_HORIZONTAL_2P_88;
}

// L_1700070748_LineConfig
object line_configuration {
	name L_1700070748_LineConfig;
	conductor_A OHCond_6_CU_I;
	conductor_B OHCond_6_CU_I;
	conductor_C OHCond_6_CU_I;
	conductor_N OHCond_NONE;
	spacing OHSpacing_HORIZONTAL_3P_52;
}

// L_1700093538_LineConfig
object line_configuration {
	name L_1700093538_LineConfig;
	conductor_A OHCond_4_ACSR_I;
	conductor_B OHCond_4_ACSR_I;
	conductor_C OHCond_4_ACSR_I;
	conductor_N OHCond_NONE;
	spacing OHSpacing_HORIZONTAL_3P_52;
}

// L_1700073497_LineConfig
object line_configuration {
	name L_1700073497_LineConfig;
	conductor_A OHCond_6_CU_I;
	conductor_B OHCond_6_CU_I;
	conductor_C OHCond_6_CU_I;
	conductor_N OHCond_NONE;
	spacing OHSpacing_HORIZONTAL_3P_52;
}

// L_1700008258_LineConfig
object line_configuration {
	name L_1700008258_LineConfig;
	conductor_A OHCond_4/0_AAC_I;
	conductor_B OHCond_4/0_AAC_I;
	conductor_C OHCond_4/0_AAC_I;
	conductor_N OHCond_NONE;
	spacing OHSpacing_TRIANGULAR_3P_52;
}

// L_1700001152_LineConfig
object line_configuration {
	name L_1700001152_LineConfig;
	conductor_A OHCond_4/0_AAC_I;
	conductor_B OHCond_4/0_AAC_I;
	conductor_C OHCond_4/0_AAC_I;
	conductor_N OHCond_NONE;
	spacing OHSpacing_HORIZONTAL_3P_52;
}

// L_1700093626_LineConfig
object line_configuration {
	name L_1700093626_LineConfig;
	conductor_A OHCond_4_ACSR_I;
	conductor_B OHCond_NONE;
	conductor_C OHCond_NONE;
	conductor_N OHCond_4_ACSR_I;
	spacing OHSpacing_HORIZONTAL_1P_52;
}

// L_1700093604_LineConfig
object line_configuration {
	name L_1700093604_LineConfig;
	conductor_A OHCond_4_ACSR_I;
	conductor_B OHCond_4_ACSR_I;
	conductor_C OHCond_NONE;
	conductor_N OHCond_NONE;
	spacing OHSpacing_HORIZONTAL_2P_52;
}

// L_1700018451_LineConfig
object line_configuration {
	name L_1700018451_LineConfig;
	conductor_A OHCond_4_CU_I;
	conductor_B OHCond_4_CU_I;
	conductor_C OHCond_4_CU_I;
	conductor_N OHCond_NONE;
	spacing OHSpacing_HORIZONTAL_3P_52;
}

// L_1700009263_LineConfig
object line_configuration {
	name L_1700009263_LineConfig;
	conductor_A OHCond_6_CU_I;
	conductor_B OHCond_6_CU_I;
	conductor_C OHCond_6_CU_I;
	conductor_N OHCond_NONE;
	spacing OHSpacing_HORIZONTAL_3P_52;
}

// L_1700092341_LineConfig
object line_configuration {
	name L_1700092341_LineConfig;
	conductor_A OHCond_6_CU_I;
	conductor_B OHCond_6_CU_I;
	conductor_C OHCond_6_CU_I;
	conductor_N OHCond_NONE;
	spacing OHSpacing_HORIZONTAL_3P_52;
}

// L_1700129281_LineConfig
object line_configuration {
	name L_1700129281_LineConfig;
	conductor_A OHCond_4_ACSR_I;
	conductor_B OHCond_4_ACSR_I;
	conductor_C OHCond_4_ACSR_I;
	conductor_N OHCond_4_ACSR_I;
	spacing OHSpacing_HORIZONTAL_3P_52;
}

// L_1700093744_LineConfig
object line_configuration {
	name L_1700093744_LineConfig;
	conductor_A OHCond_4_ACSR_I;
	conductor_B OHCond_4_ACSR_I;
	conductor_C OHCond_NONE;
	conductor_N OHCond_4_ACSR_I;
	spacing OHSpacing_HORIZONTAL_2P_52;
}

// L_1700093750_LineConfig
object line_configuration {
	name L_1700093750_LineConfig;
	conductor_A OHCond_4_ACSR_I;
	conductor_B OHCond_4_ACSR_I;
	conductor_C OHCond_NONE;
	conductor_N OHCond_NONE;
	spacing OHSpacing_HORIZONTAL_2P_88;
}

// L_1700065131_LineConfig
object line_configuration {
	name L_1700065131_LineConfig;
	conductor_A OHCond_4_ACSR_I;
	conductor_B OHCond_4_ACSR_I;
	conductor_C OHCond_NONE;
	conductor_N OHCond_NONE;
	spacing OHSpacing_HORIZONTAL_2P_52;
}

// L_1700070736_LineConfig
object line_configuration {
	name L_1700070736_LineConfig;
	conductor_A OHCond_4_CU_I;
	conductor_B OHCond_4_CU_I;
	conductor_C OHCond_NONE;
	conductor_N OHCond_NONE;
	spacing OHSpacing_HORIZONTAL_2P_56;
}

// L_1700010412_LineConfig
object line_configuration {
	name L_1700010412_LineConfig;
	conductor_A OHCond_6_CU_I;
	conductor_B OHCond_6_CU_I;
	conductor_C OHCond_6_CU_I;
	conductor_N OHCond_NONE;
	spacing OHSpacing_HORIZONTAL_3P_52;
}

// L_1700093753_LineConfig
object line_configuration {
	name L_1700093753_LineConfig;
	conductor_A OHCond_4_ACSR_I;
	conductor_B OHCond_NONE;
	conductor_C OHCond_NONE;
	conductor_N OHCond_4_ACSR_I;
	spacing OHSpacing_HORIZONTAL_1P_52;
}

// L_1700091975_LineConfig
object line_configuration {
	name L_1700091975_LineConfig;
	conductor_A OHCond_4_ACSR_I;
	conductor_B OHCond_4_ACSR_I;
	conductor_C OHCond_4_ACSR_I;
	conductor_N OHCond_NONE;
	spacing OHSpacing_HORIZONTAL_3P_52;
}

// L_1700094008_LineConfig
object line_configuration {
	name L_1700094008_LineConfig;
	conductor_A OHCond_4_ACSR_I;
	conductor_B OHCond_4_ACSR_I;
	conductor_C OHCond_NONE;
	conductor_N OHCond_NONE;
	spacing OHSpacing_HORIZONTAL_2P_52;
}

// L_1700093724_LineConfig
object line_configuration {
	name L_1700093724_LineConfig;
	conductor_A OHCond_6_CU_I;
	conductor_B OHCond_6_CU_I;
	conductor_C OHCond_NONE;
	conductor_N OHCond_6_CU_I;
	spacing OHSpacing_HORIZONTAL_2P_52;
}

// L_1700119194_LineConfig
object line_configuration {
	name L_1700119194_LineConfig;
	conductor_A OHCond_4_ACSR_I;
	conductor_B OHCond_4_ACSR_I;
	conductor_C OHCond_NONE;
	conductor_N OHCond_NONE;
	spacing OHSpacing_HORIZONTAL_2P_52;
}

// L_1700051415_LineConfig
object line_configuration {
	name L_1700051415_LineConfig;
	conductor_A OHCond_6_CU_I;
	conductor_B OHCond_6_CU_I;
	conductor_C OHCond_6_CU_I;
	conductor_N OHCond_NONE;
	spacing OHSpacing_HORIZONTAL_3P_52;
}

// L_1700094029_LineConfig
object line_configuration {
	name L_1700094029_LineConfig;
	conductor_A OHCond_4_CU_I;
	conductor_B OHCond_4_CU_I;
	conductor_C OHCond_4_CU_I;
	conductor_N OHCond_NONE;
	spacing OHSpacing_HORIZONTAL_3P_52;
}

// L_1700093616_LineConfig
object line_configuration {
	name L_1700093616_LineConfig;
	conductor_A OHCond_4_ACSR_I;
	conductor_B OHCond_4_ACSR_I;
	conductor_C OHCond_NONE;
	conductor_N OHCond_4_ACSR_I;
	spacing OHSpacing_HORIZONTAL_2P_52;
}

// L_1700091988_LineConfig
object line_configuration {
	name L_1700091988_LineConfig;
	conductor_A OHCond_4_ACSR_I;
	conductor_B OHCond_4_ACSR_I;
	conductor_C OHCond_4_ACSR_I;
	conductor_N OHCond_NONE;
	spacing OHSpacing_HORIZONTAL_3P_52;
}

// L_1700008344_LineConfig
object line_configuration {
	name L_1700008344_LineConfig;
	conductor_A OHCond_6_CU_I;
	conductor_B OHCond_6_CU_I;
	conductor_C OHCond_6_CU_I;
	conductor_N OHCond_6_CU_I;
	spacing OHSpacing_HORIZONTAL_3P_52;
}

// L_1700070741_LineConfig
object line_configuration {
	name L_1700070741_LineConfig;
	conductor_A OHCond_1/0_ACSR_I;
	conductor_B OHCond_1/0_ACSR_I;
	conductor_C OHCond_1/0_ACSR_I;
	conductor_N OHCond_NONE;
	spacing OHSpacing_HORIZONTAL_3P_52;
}

// L_1700092943_LineConfig
object line_configuration {
	name L_1700092943_LineConfig;
	conductor_A OHCond_4_ACSR_I;
	conductor_B OHCond_4_ACSR_I;
	conductor_C OHCond_4_ACSR_I;
	conductor_N OHCond_NONE;
	spacing OHSpacing_HORIZONTAL_3P_52;
}

// L_1700018156_LineConfig
object line_configuration {
	name L_1700018156_LineConfig;
	conductor_A OHCond_4_ACSR_I;
	conductor_B OHCond_4_ACSR_I;
	conductor_C OHCond_4_ACSR_I;
	conductor_N OHCond_NONE;
	spacing OHSpacing_HORIZONTAL_3P_88;
}

// L_1700009312_LineConfig
object line_configuration {
	name L_1700009312_LineConfig;
	conductor_A OHCond_4_CU_I;
	conductor_B OHCond_4_CU_I;
	conductor_C OHCond_4_CU_I;
	conductor_N OHCond_NONE;
	spacing OHSpacing_HORIZONTAL_3P_52;
}

// L_1700091961_LineConfig
object line_configuration {
	name L_1700091961_LineConfig;
	conductor_A OHCond_6_CU_I;
	conductor_B OHCond_6_CU_I;
	conductor_C OHCond_6_CU_I;
	conductor_N OHCond_NONE;
	spacing OHSpacing_HORIZONTAL_3P_52;
}

// L_1700092867_LineConfig
object line_configuration {
	name L_1700092867_LineConfig;
	conductor_A OHCond_6_CU_I;
	conductor_B OHCond_6_CU_I;
	conductor_C OHCond_6_CU_I;
	conductor_N OHCond_NONE;
	spacing OHSpacing_HORIZONTAL_3P_52;
}

// L_1700134406_LineConfig
object line_configuration {
	name L_1700134406_LineConfig;
	conductor_A OHCond_4_ACSR_I;
	conductor_B OHCond_4_ACSR_I;
	conductor_C OHCond_4_ACSR_I;
	conductor_N OHCond_4_ACSR_I;
	spacing OHSpacing_HORIZONTAL_3P_52;
}

// L_1700070527_LineConfig
object line_configuration {
	name L_1700070527_LineConfig;
	conductor_A OHCond_6_CU_I;
	conductor_B OHCond_6_CU_I;
	conductor_C OHCond_6_CU_I;
	conductor_N OHCond_NONE;
	spacing OHSpacing_HORIZONTAL_3P_52;
}

// L_1700096269_LineConfig
object line_configuration {
	name L_1700096269_LineConfig;
	conductor_A OHCond_4_ACSR_I;
	conductor_B OHCond_4_ACSR_I;
	conductor_C OHCond_4_ACSR_I;
	conductor_N OHCond_NONE;
	spacing OHSpacing_HORIZONTAL_3P_52;
}

// L_1700008730_LineConfig
object line_configuration {
	name L_1700008730_LineConfig;
	conductor_A OHCond_6_CU_I;
	conductor_B OHCond_6_CU_I;
	conductor_C OHCond_6_CU_I;
	conductor_N OHCond_NONE;
	spacing OHSpacing_HORIZONTAL_3P_52;
}

// L_1700093259_LineConfig
object line_configuration {
	name L_1700093259_LineConfig;
	conductor_A OHCond_4_CU_I;
	conductor_B OHCond_4_CU_I;
	conductor_C OHCond_4_CU_I;
	conductor_N OHCond_NONE;
	spacing OHSpacing_HORIZONTAL_3P_52;
}

// L_1700024923_LineConfig
object line_configuration {
	name L_1700024923_LineConfig;
	conductor_A OHCond_4_ACSR_I;
	conductor_B OHCond_4_ACSR_I;
	conductor_C OHCond_NONE;
	conductor_N OHCond_NONE;
	spacing OHSpacing_TRIANGULAR_2P_45;
}

// L_1700093662_LineConfig
object line_configuration {
	name L_1700093662_LineConfig;
	conductor_A OHCond_4_ACSR_I;
	conductor_B OHCond_4_ACSR_I;
	conductor_C OHCond_4_ACSR_I;
	conductor_N OHCond_NONE;
	spacing OHSpacing_HORIZONTAL_3P_52;
}

// L_1700009293_LineConfig
object line_configuration {
	name L_1700009293_LineConfig;
	conductor_A OHCond_4_CU_I;
	conductor_B OHCond_4_CU_I;
	conductor_C OHCond_4_CU_I;
	conductor_N OHCond_NONE;
	spacing OHSpacing_HORIZONTAL_3P_52;
}

// L_1700059698_LineConfig
object line_configuration {
	name L_1700059698_LineConfig;
	conductor_A OHCond_4_ACSR_I;
	conductor_B OHCond_4_ACSR_I;
	conductor_C OHCond_NONE;
	conductor_N OHCond_NONE;
	spacing OHSpacing_HORIZONTAL_2P_52;
}

// L_1700093282_LineConfig
object line_configuration {
	name L_1700093282_LineConfig;
	conductor_A OHCond_4_ACSR_I;
	conductor_B OHCond_4_ACSR_I;
	conductor_C OHCond_NONE;
	conductor_N OHCond_NONE;
	spacing OHSpacing_HORIZONTAL_2P_88;
}

// L_1700094802_LineConfig
object line_configuration {
	name L_1700094802_LineConfig;
	conductor_A OHCond_397_AAC_I;
	conductor_B OHCond_397_AAC_I;
	conductor_C OHCond_397_AAC_I;
	conductor_N OHCond_NONE;
	spacing OHSpacing_HORIZONTAL_3P_52;
}

// L_1700091981_LineConfig
object line_configuration {
	name L_1700091981_LineConfig;
	conductor_A OHCond_4_ACSR_I;
	conductor_B OHCond_4_ACSR_I;
	conductor_C OHCond_4_ACSR_I;
	conductor_N OHCond_NONE;
	spacing OHSpacing_HORIZONTAL_3P_52;
}

// L_1700093693_LineConfig
object line_configuration {
	name L_1700093693_LineConfig;
	conductor_A OHCond_6_CU_I;
	conductor_B OHCond_6_CU_I;
	conductor_C OHCond_6_CU_I;
	conductor_N OHCond_NONE;
	spacing OHSpacing_HORIZONTAL_3P_52;
}

// L_1700048081_LineConfig
object line_configuration {
	name L_1700048081_LineConfig;
	conductor_A OHCond_715_AAC_I;
	conductor_B OHCond_715_AAC_I;
	conductor_C OHCond_715_AAC_I;
	conductor_N OHCond_NONE;
	spacing OHSpacing_HORIZONTAL_3P_49;
}

// L_1700009854_LineConfig
object line_configuration {
	name L_1700009854_LineConfig;
	conductor_A OHCond_6_CU_I;
	conductor_B OHCond_6_CU_I;
	conductor_C OHCond_6_CU_I;
	conductor_N OHCond_NONE;
	spacing OHSpacing_HORIZONTAL_3P_88;
}

// L_1700093544_LineConfig
object line_configuration {
	name L_1700093544_LineConfig;
	conductor_A OHCond_6_CU_I;
	conductor_B OHCond_6_CU_I;
	conductor_C OHCond_6_CU_I;
	conductor_N OHCond_NONE;
	spacing OHSpacing_HORIZONTAL_3P_52;
}

// L_1700093236_LineConfig
object line_configuration {
	name L_1700093236_LineConfig;
	conductor_A OHCond_6_CU_I;
	conductor_B OHCond_6_CU_I;
	conductor_C OHCond_6_CU_I;
	conductor_N OHCond_6_CU_I;
	spacing OHSpacing_HORIZONTAL_3P_52;
}

// L_1700070526_LineConfig
object line_configuration {
	name L_1700070526_LineConfig;
	conductor_A OHCond_6_CU_I;
	conductor_B OHCond_6_CU_I;
	conductor_C OHCond_6_CU_I;
	conductor_N OHCond_NONE;
	spacing OHSpacing_HORIZONTAL_3P_52;
}

// L_1700080577_LineConfig
object line_configuration {
	name L_1700080577_LineConfig;
	conductor_A OHCond_4_CU_I;
	conductor_B OHCond_4_CU_I;
	conductor_C OHCond_4_CU_I;
	conductor_N OHCond_NONE;
	spacing OHSpacing_HORIZONTAL_3P_52;
}

// L_1700070732_LineConfig
object line_configuration {
	name L_1700070732_LineConfig;
	conductor_A OHCond_1/0_ACSR_I;
	conductor_B OHCond_1/0_ACSR_I;
	conductor_C OHCond_1/0_ACSR_I;
	conductor_N OHCond_NONE;
	spacing OHSpacing_HORIZONTAL_3P_52;
}

// L_1700093825_LineConfig
object line_configuration {
	name L_1700093825_LineConfig;
	conductor_A OHCond_4_ACSR_I;
	conductor_B OHCond_4_ACSR_I;
	conductor_C OHCond_4_ACSR_I;
	conductor_N OHCond_NONE;
	spacing OHSpacing_HORIZONTAL_3P_52;
}

// L_1700119193_LineConfig
object line_configuration {
	name L_1700119193_LineConfig;
	conductor_A OHCond_4_ACSR_I;
	conductor_B OHCond_4_ACSR_I;
	conductor_C OHCond_NONE;
	conductor_N OHCond_NONE;
	spacing OHSpacing_HORIZONTAL_2P_52;
}

// L_1700070749_LineConfig
object line_configuration {
	name L_1700070749_LineConfig;
	conductor_A OHCond_6_CU_I;
	conductor_B OHCond_6_CU_I;
	conductor_C OHCond_NONE;
	conductor_N OHCond_NONE;
	spacing OHSpacing_HORIZONTAL_2P_88;
}

// L_1700058425_LineConfig
object line_configuration {
	name L_1700058425_LineConfig;
	conductor_A OHCond_6_CU_I;
	conductor_B OHCond_6_CU_I;
	conductor_C OHCond_6_CU_I;
	conductor_N OHCond_NONE;
	spacing OHSpacing_HORIZONTAL_3P_52;
}

// L_1700093170_LineConfig
object line_configuration {
	name L_1700093170_LineConfig;
	conductor_A OHCond_4_ACSR_I;
	conductor_B OHCond_4_ACSR_I;
	conductor_C OHCond_4_ACSR_I;
	conductor_N OHCond_NONE;
	spacing OHSpacing_HORIZONTAL_3P_52;
}

// L_1700023469_LineConfig
object line_configuration {
	name L_1700023469_LineConfig;
	conductor_A OHCond_4/0_ACSR_I;
	conductor_B OHCond_4/0_ACSR_I;
	conductor_C OHCond_NONE;
	conductor_N OHCond_NONE;
	spacing OHSpacing_HORIZONTAL_2P_88;
}

// L_1700019086_LineConfig
object line_configuration {
	name L_1700019086_LineConfig;
	conductor_A OHCond_4_ACSR_I;
	conductor_B OHCond_4_ACSR_I;
	conductor_C OHCond_NONE;
	conductor_N OHCond_NONE;
	spacing OHSpacing_HORIZONTAL_2P_52;
}

// L_1700093553_LineConfig
object line_configuration {
	name L_1700093553_LineConfig;
	conductor_A OHCond_4_ACSR_I;
	conductor_B OHCond_4_ACSR_I;
	conductor_C OHCond_NONE;
	conductor_N OHCond_NONE;
	spacing OHSpacing_TRIANGULAR_2P_36;
}

// L_1700119438_LineConfig
object line_configuration {
	name L_1700119438_LineConfig;
	conductor_A OHCond_4_ACSR_I;
	conductor_B OHCond_4_ACSR_I;
	conductor_C OHCond_NONE;
	conductor_N OHCond_4_ACSR_I;
	spacing OHSpacing_HORIZONTAL_2P_52;
}

// L_1700009309_LineConfig
object line_configuration {
	name L_1700009309_LineConfig;
	conductor_A OHCond_4_CU_I;
	conductor_B OHCond_4_CU_I;
	conductor_C OHCond_4_CU_I;
	conductor_N OHCond_NONE;
	spacing OHSpacing_HORIZONTAL_3P_52;
}

// L_1700009587_LineConfig
object line_configuration {
	name L_1700009587_LineConfig;
	conductor_A OHCond_6_CU_I;
	conductor_B OHCond_NONE;
	conductor_C OHCond_NONE;
	conductor_N OHCond_6_CU_I;
	spacing OHSpacing_HORIZONTAL_1P_52;
}

// L_1700062570_LineConfig
object line_configuration {
	name L_1700062570_LineConfig;
	conductor_A OHCond_4_ACSR_I;
	conductor_B OHCond_4_ACSR_I;
	conductor_C OHCond_4_ACSR_I;
	conductor_N OHCond_NONE;
	spacing OHSpacing_HORIZONTAL_3P_52;
}

// L_1700093756_LineConfig
object line_configuration {
	name L_1700093756_LineConfig;
	conductor_A OHCond_6_CU_I;
	conductor_B OHCond_6_CU_I;
	conductor_C OHCond_6_CU_I;
	conductor_N OHCond_NONE;
	spacing OHSpacing_HORIZONTAL_3P_52;
}

// L_1700062827_LineConfig
object line_configuration {
	name L_1700062827_LineConfig;
	conductor_A OHCond_4_CU_I;
	conductor_B OHCond_4_CU_I;
	conductor_C OHCond_4_CU_I;
	conductor_N OHCond_NONE;
	spacing OHSpacing_HORIZONTAL_3P_52;
}

// L_1700092970_LineConfig
object line_configuration {
	name L_1700092970_LineConfig;
	conductor_A OHCond_6_CU_I;
	conductor_B OHCond_6_CU_I;
	conductor_C OHCond_6_CU_I;
	conductor_N OHCond_NONE;
	spacing OHSpacing_HORIZONTAL_3P_52;
}

// L_1700093592_LineConfig
object line_configuration {
	name L_1700093592_LineConfig;
	conductor_A OHCond_NONE;
	conductor_B OHCond_NONE;
	conductor_C OHCond_4_ACSR_I;
	conductor_N OHCond_4_ACSR_I;
	spacing OHSpacing_HORIZONTAL_1P_45;
}

// L_1700019030_LineConfig
object line_configuration {
	name L_1700019030_LineConfig;
	conductor_A OHCond_4_CU_I;
	conductor_B OHCond_4_CU_I;
	conductor_C OHCond_4_CU_I;
	conductor_N OHCond_NONE;
	spacing OHSpacing_HORIZONTAL_3P_52;
}

// L_1700093268_LineConfig
object line_configuration {
	name L_1700093268_LineConfig;
	conductor_A OHCond_4_ACSR_I;
	conductor_B OHCond_4_ACSR_I;
	conductor_C OHCond_NONE;
	conductor_N OHCond_NONE;
	spacing OHSpacing_HORIZONTAL_2P_52;
}

// L_1700062068_LineConfig
object line_configuration {
	name L_1700062068_LineConfig;
	conductor_A OHCond_6_CU_I;
	conductor_B OHCond_6_CU_I;
	conductor_C OHCond_6_CU_I;
	conductor_N OHCond_NONE;
	spacing OHSpacing_HORIZONTAL_3P_52;
}

// L_1700070530_LineConfig
object line_configuration {
	name L_1700070530_LineConfig;
	conductor_A OHCond_6_CU_I;
	conductor_B OHCond_6_CU_I;
	conductor_C OHCond_6_CU_I;
	conductor_N OHCond_NONE;
	spacing OHSpacing_HORIZONTAL_3P_52;
}

// L_1700057707_LineConfig
object line_configuration {
	name L_1700057707_LineConfig;
	conductor_A OHCond_4_CU_I;
	conductor_B OHCond_4_CU_I;
	conductor_C OHCond_4_CU_I;
	conductor_N OHCond_NONE;
	spacing OHSpacing_HORIZONTAL_3P_52;
}

// L_1700119439_LineConfig
object line_configuration {
	name L_1700119439_LineConfig;
	conductor_A OHCond_4_ACSR_I;
	conductor_B OHCond_NONE;
	conductor_C OHCond_NONE;
	conductor_N OHCond_4_ACSR_I;
	spacing OHSpacing_HORIZONTAL_1P_52;
}

// L_1700093778_LineConfig
object line_configuration {
	name L_1700093778_LineConfig;
	conductor_A OHCond_4_CU_I;
	conductor_B OHCond_4_CU_I;
	conductor_C OHCond_4_CU_I;
	conductor_N OHCond_NONE;
	spacing OHSpacing_HORIZONTAL_3P_52;
}

// L_1700009287_LineConfig
object line_configuration {
	name L_1700009287_LineConfig;
	conductor_A OHCond_4_CU_I;
	conductor_B OHCond_4_CU_I;
	conductor_C OHCond_4_CU_I;
	conductor_N OHCond_NONE;
	spacing OHSpacing_HORIZONTAL_3P_52;
}

// L_1700009691_LineConfig
object line_configuration {
	name L_1700009691_LineConfig;
	conductor_A OHCond_4_ACSR_I;
	conductor_B OHCond_NONE;
	conductor_C OHCond_NONE;
	conductor_N OHCond_NONE;
	spacing OHSpacing_HORIZONTAL_1P_52;
}

// L_1700070733_LineConfig
object line_configuration {
	name L_1700070733_LineConfig;
	conductor_A OHCond_4_CU_I;
	conductor_B OHCond_4_CU_I;
	conductor_C OHCond_4_CU_I;
	conductor_N OHCond_NONE;
	spacing OHSpacing_HORIZONTAL_3P_52;
}

// L_1700008986_LineConfig
object line_configuration {
	name L_1700008986_LineConfig;
	conductor_A OHCond_4_CU_I;
	conductor_B OHCond_4_CU_I;
	conductor_C OHCond_4_CU_I;
	conductor_N OHCond_NONE;
	spacing OHSpacing_HORIZONTAL_3P_52;
}

// L_1700093256_LineConfig
object line_configuration {
	name L_1700093256_LineConfig;
	conductor_A OHCond_4_ACSR_I;
	conductor_B OHCond_4_ACSR_I;
	conductor_C OHCond_NONE;
	conductor_N OHCond_4_ACSR_I;
	spacing OHSpacing_HORIZONTAL_2P_52;
}

// L_1700119814_LineConfig
object line_configuration {
	name L_1700119814_LineConfig;
	conductor_A OHCond_6_CU_I;
	conductor_B OHCond_6_CU_I;
	conductor_C OHCond_6_CU_I;
	conductor_N OHCond_NONE;
	spacing OHSpacing_HORIZONTAL_3P_52;
}

// L_1700111634_LineConfig
object line_configuration {
	name L_1700111634_LineConfig;
	conductor_A OHCond_4_ACSR_I;
	conductor_B OHCond_4_ACSR_I;
	conductor_C OHCond_NONE;
	conductor_N OHCond_4_ACSR_I;
	spacing OHSpacing_HORIZONTAL_2P_52;
}

// L_1700094363_LineConfig
object line_configuration {
	name L_1700094363_LineConfig;
	conductor_A OHCond_4_ACSR_I;
	conductor_B OHCond_4_ACSR_I;
	conductor_C OHCond_4_ACSR_I;
	conductor_N OHCond_NONE;
	spacing OHSpacing_HORIZONTAL_3P_52;
}

// L_1700093602_LineConfig
object line_configuration {
	name L_1700093602_LineConfig;
	conductor_A OHCond_1/0_CU_I;
	conductor_B OHCond_1/0_CU_I;
	conductor_C OHCond_1/0_CU_I;
	conductor_N OHCond_NONE;
	spacing OHSpacing_HORIZONTAL_3P_52;
}

// L_1700093650_LineConfig
object line_configuration {
	name L_1700093650_LineConfig;
	conductor_A OHCond_6_CU_I;
	conductor_B OHCond_6_CU_I;
	conductor_C OHCond_6_CU_I;
	conductor_N OHCond_NONE;
	spacing OHSpacing_HORIZONTAL_3P_52;
}

// L_1700019481_LineConfig
object line_configuration {
	name L_1700019481_LineConfig;
	conductor_A OHCond_6_CU_I;
	conductor_B OHCond_6_CU_I;
	conductor_C OHCond_6_CU_I;
	conductor_N OHCond_NONE;
	spacing OHSpacing_HORIZONTAL_3P_52;
}

// L_1700018481_LineConfig
object line_configuration {
	name L_1700018481_LineConfig;
	conductor_A OHCond_6_CU_I;
	conductor_B OHCond_6_CU_I;
	conductor_C OHCond_6_CU_I;
	conductor_N OHCond_NONE;
	spacing OHSpacing_HORIZONTAL_3P_52;
}

// L_1700094713_LineConfig
object line_configuration {
	name L_1700094713_LineConfig;
	conductor_A OHCond_397_AAC_I;
	conductor_B OHCond_397_AAC_I;
	conductor_C OHCond_397_AAC_I;
	conductor_N OHCond_NONE;
	spacing OHSpacing_HORIZONTAL_3P_52;
}

// L_1700093643_LineConfig
object line_configuration {
	name L_1700093643_LineConfig;
	conductor_A OHCond_4_ACSR_I;
	conductor_B OHCond_4_ACSR_I;
	conductor_C OHCond_4_ACSR_I;
	conductor_N OHCond_NONE;
	spacing OHSpacing_HORIZONTAL_3P_52;
}

// L_1700133225_LineConfig
object line_configuration {
	name L_1700133225_LineConfig;
	conductor_A OHCond_4/0_AAC_I;
	conductor_B OHCond_4/0_AAC_I;
	conductor_C OHCond_4/0_AAC_I;
	conductor_N OHCond_NONE;
	spacing OHSpacing_TRIANGULAR_3P_52;
}

// L_1700093229_LineConfig
object line_configuration {
	name L_1700093229_LineConfig;
	conductor_A OHCond_4_ACSR_I;
	conductor_B OHCond_4_ACSR_I;
	conductor_C OHCond_4_ACSR_I;
	conductor_N OHCond_NONE;
	spacing OHSpacing_HORIZONTAL_3P_52;
}

// L_1700119521_LineConfig
object line_configuration {
	name L_1700119521_LineConfig;
	conductor_A OHCond_4_ACSR_I;
	conductor_B OHCond_4_ACSR_I;
	conductor_C OHCond_4_ACSR_I;
	conductor_N OHCond_NONE;
	spacing OHSpacing_HORIZONTAL_3P_52;
}

// L_1700093226_LineConfig
object line_configuration {
	name L_1700093226_LineConfig;
	conductor_A OHCond_4_ACSR_I;
	conductor_B OHCond_4_ACSR_I;
	conductor_C OHCond_4_ACSR_I;
	conductor_N OHCond_4_ACSR_I;
	spacing OHSpacing_HORIZONTAL_3P_52;
}

// L_1700124556_LineConfig
object line_configuration {
	name L_1700124556_LineConfig;
	conductor_A OHCond_4_ACSR_I;
	conductor_B OHCond_4_ACSR_I;
	conductor_C OHCond_NONE;
	conductor_N OHCond_NONE;
	spacing OHSpacing_HORIZONTAL_2P_88;
}

// L_1700119425_LineConfig
object line_configuration {
	name L_1700119425_LineConfig;
	conductor_A OHCond_6_CU_I;
	conductor_B OHCond_6_CU_I;
	conductor_C OHCond_NONE;
	conductor_N OHCond_6_CU_I;
	spacing OHSpacing_HORIZONTAL_2P_52;
}

// L_1700119553_LineConfig
object line_configuration {
	name L_1700119553_LineConfig;
	conductor_A OHCond_4_CU_I;
	conductor_B OHCond_4_CU_I;
	conductor_C OHCond_4_CU_I;
	conductor_N OHCond_NONE;
	spacing OHSpacing_HORIZONTAL_3P_52;
}

// L_1700061968_LineConfig
object line_configuration {
	name L_1700061968_LineConfig;
	conductor_A OHCond_4_CU_I;
	conductor_B OHCond_4_CU_I;
	conductor_C OHCond_4_CU_I;
	conductor_N OHCond_NONE;
	spacing OHSpacing_TRIANGULAR_3P_35;
}

// L_1700022527_LineConfig
object line_configuration {
	name L_1700022527_LineConfig;
	conductor_A OHCond_397_AAC_I;
	conductor_B OHCond_397_AAC_I;
	conductor_C OHCond_397_AAC_I;
	conductor_N OHCond_NONE;
	spacing OHSpacing_HORIZONTAL_3P_52;
}

// L_1700070751_LineConfig
object line_configuration {
	name L_1700070751_LineConfig;
	conductor_A OHCond_4_CU_I;
	conductor_B OHCond_4_CU_I;
	conductor_C OHCond_4_CU_I;
	conductor_N OHCond_NONE;
	spacing OHSpacing_HORIZONTAL_3P_52;
}

// L_1700008383_LineConfig
object line_configuration {
	name L_1700008383_LineConfig;
	conductor_A OHCond_4_ACSR_I;
	conductor_B OHCond_4_ACSR_I;
	conductor_C OHCond_NONE;
	conductor_N OHCond_NONE;
	spacing OHSpacing_HORIZONTAL_2P_88;
}

// L_1700093780_LineConfig
object line_configuration {
	name L_1700093780_LineConfig;
	conductor_A OHCond_4_CU_I;
	conductor_B OHCond_4_CU_I;
	conductor_C OHCond_4_CU_I;
	conductor_N OHCond_NONE;
	spacing OHSpacing_HORIZONTAL_3P_52;
}

// L_1700024938_LineConfig
object line_configuration {
	name L_1700024938_LineConfig;
	conductor_A OHCond_4_CU_I;
	conductor_B OHCond_4_CU_I;
	conductor_C OHCond_4_CU_I;
	conductor_N OHCond_NONE;
	spacing OHSpacing_TRIANGULAR_3P_35;
}

// L_1700093541_LineConfig
object line_configuration {
	name L_1700093541_LineConfig;
	conductor_A OHCond_4_ACSR_I;
	conductor_B OHCond_4_ACSR_I;
	conductor_C OHCond_4_ACSR_I;
	conductor_N OHCond_NONE;
	spacing OHSpacing_HORIZONTAL_3P_52;
}

// L_1700093265_LineConfig
object line_configuration {
	name L_1700093265_LineConfig;
	conductor_A OHCond_4_ACSR_I;
	conductor_B OHCond_4_ACSR_I;
	conductor_C OHCond_NONE;
	conductor_N OHCond_4_ACSR_I;
	spacing OHSpacing_HORIZONTAL_2P_52;
}

// L_1700122136_LineConfig
object line_configuration {
	name L_1700122136_LineConfig;
	conductor_A OHCond_4_ACSR_I;
	conductor_B OHCond_4_ACSR_I;
	conductor_C OHCond_4_ACSR_I;
	conductor_N OHCond_NONE;
	spacing OHSpacing_HORIZONTAL_3P_52;
}

// L_1700093685_LineConfig
object line_configuration {
	name L_1700093685_LineConfig;
	conductor_A OHCond_6_CU_I;
	conductor_B OHCond_6_CU_I;
	conductor_C OHCond_6_CU_I;
	conductor_N OHCond_NONE;
	spacing OHSpacing_HORIZONTAL_3P_52;
}

// L_1700094056_LineConfig
object line_configuration {
	name L_1700094056_LineConfig;
	conductor_A OHCond_4_ACSR_I;
	conductor_B OHCond_4_ACSR_I;
	conductor_C OHCond_4_ACSR_I;
	conductor_N OHCond_NONE;
	spacing OHSpacing_HORIZONTAL_3P_52;
}

// L_1700017833_LineConfig
object line_configuration {
	name L_1700017833_LineConfig;
	conductor_A OHCond_4_ACSR_I;
	conductor_B OHCond_4_ACSR_I;
	conductor_C OHCond_NONE;
	conductor_N OHCond_NONE;
	spacing OHSpacing_HORIZONTAL_2P_52;
}

// L_1700093652_LineConfig
object line_configuration {
	name L_1700093652_LineConfig;
	conductor_A OHCond_4_ACSR_I;
	conductor_B OHCond_NONE;
	conductor_C OHCond_NONE;
	conductor_N OHCond_NONE;
	spacing OHSpacing_HORIZONTAL_1P_52;
}

// L_1700093678_LineConfig
object line_configuration {
	name L_1700093678_LineConfig;
	conductor_A OHCond_4_CU_I;
	conductor_B OHCond_4_CU_I;
	conductor_C OHCond_4_CU_I;
	conductor_N OHCond_NONE;
	spacing OHSpacing_HORIZONTAL_3P_52;
}

// L_1700009694_LineConfig
object line_configuration {
	name L_1700009694_LineConfig;
	conductor_A OHCond_397_AAC_I;
	conductor_B OHCond_397_AAC_I;
	conductor_C OHCond_397_AAC_I;
	conductor_N OHCond_NONE;
	spacing OHSpacing_HORIZONTAL_3P_52;
}

// L_1700093159_LineConfig
object line_configuration {
	name L_1700093159_LineConfig;
	conductor_A OHCond_4_ACSR_I;
	conductor_B OHCond_4_ACSR_I;
	conductor_C OHCond_4_ACSR_I;
	conductor_N OHCond_NONE;
	spacing OHSpacing_HORIZONTAL_3P_52;
}

// L_1700093691_LineConfig
object line_configuration {
	name L_1700093691_LineConfig;
	conductor_A OHCond_6_CU_I;
	conductor_B OHCond_6_CU_I;
	conductor_C OHCond_6_CU_I;
	conductor_N OHCond_NONE;
	spacing OHSpacing_HORIZONTAL_3P_52;
}

// L_1700119976_LineConfig
object line_configuration {
	name L_1700119976_LineConfig;
	conductor_A OHCond_4_ACSR_I;
	conductor_B OHCond_NONE;
	conductor_C OHCond_NONE;
	conductor_N OHCond_4_ACSR_I;
	spacing OHSpacing_HORIZONTAL_1P_52;
}

// L_1700094826_LineConfig
object line_configuration {
	name L_1700094826_LineConfig;
	conductor_A OHCond_4_CU_I;
	conductor_B OHCond_4_CU_I;
	conductor_C OHCond_4_CU_I;
	conductor_N OHCond_NONE;
	spacing OHSpacing_HORIZONTAL_3P_52;
}

// L_1700093632_LineConfig
object line_configuration {
	name L_1700093632_LineConfig;
	conductor_A OHCond_4_ACSR_I;
	conductor_B OHCond_NONE;
	conductor_C OHCond_NONE;
	conductor_N OHCond_4_ACSR_I;
	spacing OHSpacing_HORIZONTAL_1P_52;
}

// L_1700093528_LineConfig
object line_configuration {
	name L_1700093528_LineConfig;
	conductor_A OHCond_6_CU_I;
	conductor_B OHCond_6_CU_I;
	conductor_C OHCond_6_CU_I;
	conductor_N OHCond_NONE;
	spacing OHSpacing_HORIZONTAL_3P_52;
}

// L_1700093190_LineConfig
object line_configuration {
	name L_1700093190_LineConfig;
	conductor_A OHCond_4_ACSR_I;
	conductor_B OHCond_NONE;
	conductor_C OHCond_NONE;
	conductor_N OHCond_NONE;
	spacing OHSpacing_HORIZONTAL_1P_52;
}

// L_1700093593_LineConfig
object line_configuration {
	name L_1700093593_LineConfig;
	conductor_A OHCond_NONE;
	conductor_B OHCond_NONE;
	conductor_C OHCond_4_ACSR_I;
	conductor_N OHCond_4_ACSR_I;
	spacing OHSpacing_HORIZONTAL_1P_45;
}

// L_1700092909_LineConfig
object line_configuration {
	name L_1700092909_LineConfig;
	conductor_A OHCond_4_ACSR_I;
	conductor_B OHCond_4_ACSR_I;
	conductor_C OHCond_4_ACSR_I;
	conductor_N OHCond_NONE;
	spacing OHSpacing_HORIZONTAL_3P_52;
}

// L_1700121196_LineConfig
object line_configuration {
	name L_1700121196_LineConfig;
	conductor_A OHCond_6_CU_I;
	conductor_B OHCond_NONE;
	conductor_C OHCond_NONE;
	conductor_N OHCond_NONE;
	spacing OHSpacing_HORIZONTAL_1P_52;
}

// L_1700092000_LineConfig
object line_configuration {
	name L_1700092000_LineConfig;
	conductor_A OHCond_4_ACSR_I;
	conductor_B OHCond_4_ACSR_I;
	conductor_C OHCond_4_ACSR_I;
	conductor_N OHCond_NONE;
	spacing OHSpacing_HORIZONTAL_3P_52;
}

// L_1700094355_LineConfig
object line_configuration {
	name L_1700094355_LineConfig;
	conductor_A OHCond_4_CU_I;
	conductor_B OHCond_4_CU_I;
	conductor_C OHCond_4_CU_I;
	conductor_N OHCond_NONE;
	spacing OHSpacing_HORIZONTAL_3P_52;
}

// L_1700129796_LineConfig
object line_configuration {
	name L_1700129796_LineConfig;
	conductor_A OHCond_1/0_ACSR_I;
	conductor_B OHCond_1/0_ACSR_I;
	conductor_C OHCond_1/0_ACSR_I;
	conductor_N OHCond_NONE;
	spacing OHSpacing_HORIZONTAL_3P_52;
}

// L_1700092005_LineConfig
object line_configuration {
	name L_1700092005_LineConfig;
	conductor_A OHCond_6_CU_I;
	conductor_B OHCond_6_CU_I;
	conductor_C OHCond_6_CU_I;
	conductor_N OHCond_NONE;
	spacing OHSpacing_HORIZONTAL_3P_52;
}

// L_1700093164_LineConfig
object line_configuration {
	name L_1700093164_LineConfig;
	conductor_A OHCond_4_ACSR_I;
	conductor_B OHCond_4_ACSR_I;
	conductor_C OHCond_4_ACSR_I;
	conductor_N OHCond_NONE;
	spacing OHSpacing_HORIZONTAL_3P_52;
}

// L_1700092870_LineConfig
object line_configuration {
	name L_1700092870_LineConfig;
...